<routes>
            <vType accel="1.0" decel="4.5" id="standard_car" length="5.0" minGap="2.5" maxSpeed="25" sigma="0.5" />

            <route id="W_N" edges="W2TL TL2N"/>
            <route id="W_E" edges="W2TL TL2E"/>
            <route id="W_S" edges="W2TL TL2S"/>
            <route id="N_W" edges="N2TL TL2W"/>
            <route id="N_E" edges="N2TL TL2E"/>
            <route id="N_S" edges="N2TL TL2S"/>
            <route id="E_W" edges="E2TL TL2W"/>
            <route id="E_N" edges="E2TL TL2N"/>
            <route id="E_S" edges="E2TL TL2S"/>
            <route id="S_W" edges="S2TL TL2W"/>
            <route id="S_N" edges="S2TL TL2N"/>
            <route id="S_E" edges="S2TL TL2E"/>
    <vehicle id="N_S_0" type="standard_car" route="N_S" depart="12.0" departLane="random" departSpeed="10" />
    <vehicle id="W_E_1" type="standard_car" route="W_E" depart="24.0" departLane="random" departSpeed="10" />
    <vehicle id="E_W_2" type="standard_car" route="E_W" depart="27.0" departLane="random" departSpeed="10" />
    <vehicle id="N_S_3" type="standard_car" route="N_S" depart="31.0" departLane="random" departSpeed="10" />
    <vehicle id="N_S_4" type="standard_car" route="N_S" depart="36.0" departLane="random" departSpeed="10" />
    <vehicle id="W_E_5" type="standard_car" route="W_E" depart="36.0" departLane="random" departSpeed="10" />
    <vehicle id="N_S_6" type="standard_car" route="N_S" depart="41.0" departLane="random" departSpeed="10" />
    <vehicle id="S_N_7" type="standard_car" route="S_N" depart="43.0" departLane="random" departSpeed="10" />
    <vehicle id="E_N_8" type="standard_car" route="E_N" depart="43.0" departLane="random" departSpeed="10" />
    <vehicle id="W_E_9" type="standard_car" route="W_E" depart="46.0" departLane="random" departSpeed="10" />
    <vehicle id="N_E_10" type="standard_car" route="N_E" depart="46.0" departLane="random" departSpeed="10" />
    <vehicle id="S_N_11" type="standard_car" route="S_N" depart="51.0" departLane="random" departSpeed="10" />
    <vehicle id="N_W_12" type="standard_car" route="N_W" depart="53.0" departLane="random" departSpeed="10" />
    <vehicle id="N_S_13" type="standard_car" route="N_S" depart="56.0" departLane="random" departSpeed="10" />
    <vehicle id="S_W_14" type="standard_car" route="S_W" depart="58.0" departLane="random" departSpeed="10" />
    <vehicle id="W_N_15" type="standard_car" route="W_N" depart="59.0" departLane="random" departSpeed="10" />
    <vehicle id="E_W_16" type="standard_car" route="E_W" depart="60.0" departLane="random" departSpeed="10" />
    <vehicle id="W_E_17" type="standard_car" route="W_E" depart="65.0" departLane="random" departSpeed="10" />
    <vehicle id="S_W_18" type="standard_car" route="S_W" depart="65.0" departLane="random" departSpeed="10" />
    <vehicle id="N_S_19" type="standard_car" route="N_S" depart="69.0" departLane="random" departSpeed="10" />
    <vehicle id="W_E_20" type="standard_car" route="W_E" depart="69.0" departLane="random" departSpeed="10" />
    <vehicle id="E_W_21" type="standard_car" route="E_W" depart="72.0" departLane="random" departSpeed="10" />
    <vehicle id="N_S_22" type="standard_car" route="N_S" depart="75.0" departLane="random" departSpeed="10" />
    <vehicle id="S_N_23" type="standard_car" route="S_N" depart="75.0" departLane="random" departSpeed="10" />
    <vehicle id="W_E_24" type="standard_car" route="W_E" depart="75.0" departLane="random" departSpeed="10" />
    <vehicle id="E_W_25" type="standard_car" route="E_W" depart="78.0" departLane="random" departSpeed="10" />
    <vehicle id="N_E_26" type="standard_car" route="N_E" depart="78.0" departLane="random" departSpeed="10" />
    <vehicle id="N_S_27" type="standard_car" route="N_S" depart="79.0" departLane="random" departSpeed="10" />
    <vehicle id="W_E_28" type="standard_car" route="W_E" depart="81.0" departLane="random" departSpeed="10" />
    <vehicle id="S_N_29" type="standard_car" route="S_N" depart="91.0" departLane="random" departSpeed="10" />
    <vehicle id="W_E_30" type="standard_car" route="W_E" depart="94.0" departLane="random" departSpeed="10" />
    <vehicle id="N_E_31" type="standard_car" route="N_E" depart="96.0" departLane="random" departSpeed="10" />
    <vehicle id="W_E_32" type="standard_car" route="W_E" depart="98.0" departLane="random" departSpeed="10" />
    <vehicle id="W_E_33" type="standard_car" route="W_E" depart="98.0" departLane="random" departSpeed="10" />
    <vehicle id="E_W_34" type="standard_car" route="E_W" depart="100.0" departLane="random" departSpeed="10" />
    <vehicle id="E_W_35" type="standard_car" route="E_W" depart="100.0" departLane="random" departSpeed="10" />
    <vehicle id="S_E_36" type="standard_car" route="S_E" depart="102.0" departLane="random" departSpeed="10" />
    <vehicle id="N_S_37" type="standard_car" route="N_S" depart="102.0" departLane="random" departSpeed="10" />
    <vehicle id="N_W_38" type="standard_car" route="N_W" depart="105.0" departLane="random" departSpeed="10" />
    <vehicle id="E_W_39" type="standard_car" route="E_W" depart="105.0" departLane="random" departSpeed="10" />
    <vehicle id="S_N_40" type="standard_car" route="S_N" depart="106.0" departLane="random" departSpeed="10" />
    <vehicle id="E_S_41" type="standard_car" route="E_S" depart="111.0" departLane="random" departSpeed="10" />
    <vehicle id="S_N_42" type="standard_car" route="S_N" depart="111.0" departLane="random" departSpeed="10" />
    <vehicle id="W_N_43" type="standard_car" route="W_N" depart="113.0" departLane="random" departSpeed="10" />
    <vehicle id="E_W_44" type="standard_car" route="E_W" depart="114.0" departLane="random" departSpeed="10" />
    <vehicle id="N_S_45" type="standard_car" route="N_S" depart="117.0" departLane="random" departSpeed="10" />
    <vehicle id="N_S_46" type="standard_car" route="N_S" depart="124.0" departLane="random" departSpeed="10" />
    <vehicle id="E_W_47" type="standard_car" route="E_W" depart="125.0" departLane="random" departSpeed="10" />
    <vehicle id="N_S_48" type="standard_car" route="N_S" depart="127.0" departLane="random" departSpeed="10" />
    <vehicle id="N_S_49" type="standard_car" route="N_S" depart="130.0" departLane="random" departSpeed="10" />
    <vehicle id="W_E_50" type="standard_car" route="W_E" depart="133.0" departLane="random" departSpeed="10" />
    <vehicle id="N_S_51" type="standard_car" route="N_S" depart="138.0" departLane="random" departSpeed="10" />
    <vehicle id="W_N_52" type="standard_car" route="W_N" depart="138.0" departLane="random" departSpeed="10" />
    <vehicle id="W_E_53" type="standard_car" route="W_E" depart="142.0" departLane="random" departSpeed="10" />
    <vehicle id="N_S_54" type="standard_car" route="N_S" depart="143.0" departLane="random" departSpeed="10" />
    <vehicle id="E_W_55" type="standard_car" route="E_W" depart="143.0" departLane="random" departSpeed="10" />
    <vehicle id="S_N_56" type="standard_car" route="S_N" depart="144.0" departLane="random" departSpeed="10" />
    <vehicle id="S_N_57" type="standard_car" route="S_N" depart="147.0" departLane="random" departSpeed="10" />
    <vehicle id="S_N_58" type="standard_car" route="S_N" depart="148.0" departLane="random" departSpeed="10" />
    <vehicle id="W_E_59" type="standard_car" route="W_E" depart="151.0" departLane="random" departSpeed="10" />
    <vehicle id="S_N_60" type="standard_car" route="S_N" depart="158.0" departLane="random" departSpeed="10" />
    <vehicle id="S_N_61" type="standard_car" route="S_N" depart="159.0" departLane="random" departSpeed="10" />
    <vehicle id="W_E_62" type="standard_car" route="W_E" depart="159.0" departLane="random" departSpeed="10" />
    <vehicle id="N_S_63" type="standard_car" route="N_S" depart="160.0" departLane="random" departSpeed="10" />
    <vehicle id="N_S_64" type="standard_car" route="N_S" depart="161.0" departLane="random" departSpeed="10" />
    <vehicle id="E_S_65" type="standard_car" route="E_S" depart="162.0" departLane="random" departSpeed="10" />
    <vehicle id="S_E_66" type="standard_car" route="S_E" depart="165.0" departLane="random" departSpeed="10" />
    <vehicle id="W_N_67" type="standard_car" route="W_N" depart="168.0" departLane="random" departSpeed="10" />
    <vehicle id="E_W_68" type="standard_car" route="E_W" depart="174.0" departLane="random" departSpeed="10" />
    <vehicle id="E_W_69" type="standard_car" route="E_W" depart="179.0" departLane="random" departSpeed="10" />
    <vehicle id="E_W_70" type="standard_car" route="E_W" depart="185.0" departLane="random" departSpeed="10" />
    <vehicle id="W_N_71" type="standard_car" route="W_N" depart="185.0" departLane="random" departSpeed="10" />
    <vehicle id="S_N_72" type="standard_car" route="S_N" depart="186.0" departLane="random" departSpeed="10" />
    <vehicle id="E_W_73" type="standard_car" route="E_W" depart="190.0" departLane="random" departSpeed="10" />
    <vehicle id="S_N_74" type="standard_car" route="S_N" depart="191.0" departLane="random" departSpeed="10" />
    <vehicle id="N_E_75" type="standard_car" route="N_E" depart="191.0" departLane="random" departSpeed="10" />
    <vehicle id="W_E_76" type="standard_car" route="W_E" depart="199.0" departLane="random" departSpeed="10" />
    <vehicle id="S_N_77" type="standard_car" route="S_N" depart="202.0" departLane="random" departSpeed="10" />
    <vehicle id="S_N_78" type="standard_car" route="S_N" depart="202.0" departLane="random" departSpeed="10" />
    <vehicle id="N_S_79" type="standard_car" route="N_S" depart="203.0" departLane="random" departSpeed="10" />
    <vehicle id="W_E_80" type="standard_car" route="W_E" depart="204.0" departLane="random" departSpeed="10" />
    <vehicle id="N_S_81" type="standard_car" route="N_S" depart="207.0" departLane="random" departSpeed="10" />
    <vehicle id="N_S_82" type="standard_car" route="N_S" depart="212.0" departLane="random" departSpeed="10" />
    <vehicle id="E_W_83" type="standard_car" route="E_W" depart="214.0" departLane="random" departSpeed="10" />
    <vehicle id="E_N_84" type="standard_car" route="E_N" depart="217.0" departLane="random" departSpeed="10" />
    <vehicle id="S_N_85" type="standard_car" route="S_N" depart="221.0" departLane="random" departSpeed="10" />
    <vehicle id="E_W_86" type="standard_car" route="E_W" depart="223.0" departLane="random" departSpeed="10" />
    <vehicle id="W_E_87" type="standard_car" route="W_E" depart="235.0" departLane="random" departSpeed="10" />
    <vehicle id="S_N_88" type="standard_car" route="S_N" depart="236.0" departLane="random" departSpeed="10" />
    <vehicle id="N_E_89" type="standard_car" route="N_E" depart="246.0" departLane="random" departSpeed="10" />
    <vehicle id="N_S_90" type="standard_car" route="N_S" depart="250.0" departLane="random" departSpeed="10" />
    <vehicle id="S_N_91" type="standard_car" route="S_N" depart="258.0" departLane="random" departSpeed="10" />
    <vehicle id="W_E_92" type="standard_car" route="W_E" depart="266.0" departLane="random" departSpeed="10" />
    <vehicle id="E_S_93" type="standard_car" route="E_S" depart="279.0" departLane="random" departSpeed="10" />
    <vehicle id="E_N_94" type="standard_car" route="E_N" depart="287.0" departLane="random" departSpeed="10" />
    <vehicle id="N_E_95" type="standard_car" route="N_E" depart="289.0" departLane="random" departSpeed="10" />
    <vehicle id="S_N_96" type="standard_car" route="S_N" depart="306.0" departLane="random" departSpeed="10" />
    <vehicle id="E_W_97" type="standard_car" route="E_W" depart="311.0" departLane="random" departSpeed="10" />
    <vehicle id="N_W_98" type="standard_car" route="N_W" depart="312.0" departLane="random" departSpeed="10" />
    <vehicle id="N_E_99" type="standard_car" route="N_E" depart="347.0" departLane="random" departSpeed="10" />
</routes>
